version 2
1
9
.tran 1m 1 0{return}.kicad adjustpaths{return}.save all{return}.probe alli
3
2
I(R3)
 
2
I(R4)
 
2
I(R5)
 
