version 2
1
9
.tran 1m 1{return}.kicad adjustpaths{return}.save all{return}.probe alli
1
1
V(unconnected-_MES1-out-Pad3_)
 
